Version 4.1
SHEET 1 880 680
WIRE 128 64 48 64
WIRE 224 64 192 64
WIRE 320 64 224 64
WIRE 464 80 384 80
WIRE 496 80 464 80
WIRE 624 80 576 80
WIRE 320 96 304 96
WIRE 624 144 624 80
WIRE 224 176 224 64
WIRE 48 192 48 64
WIRE 304 256 304 96
WIRE 368 256 304 256
WIRE 464 256 464 80
WIRE 464 256 448 256
WIRE 304 288 304 256
WIRE 48 400 48 272
WIRE 224 400 224 256
WIRE 224 400 48 400
WIRE 304 400 304 368
WIRE 304 400 224 400
WIRE 624 400 624 208
WIRE 624 400 304 400
SYMBOL voltage 48 176 R0
SYMATTR InstName V1
SYMBOL cap 192 48 R90
WINDOW 0 0 32 VBottom 2
WINDOW 3 32 32 VTop 2
SYMATTR InstName C1
SYMBOL res 208 160 R0
SYMATTR InstName R1
SYMBOL res 592 64 R90
WINDOW 0 0 56 VBottom 2
WINDOW 3 32 56 VTop 2
SYMATTR InstName R2
SYMBOL res 320 384 R180
WINDOW 0 36 76 Left 2
WINDOW 3 36 40 Left 2
SYMATTR InstName R3
SYMBOL res 352 272 R270
WINDOW 0 32 56 VTop 2
WINDOW 3 0 56 VBottom 2
SYMATTR InstName R4
SYMBOL cap 608 144 R0
SYMATTR InstName C2
SYMBOL TL072 352 144 M180
SYMATTR InstName U1
