Version 4
SHEET 1 880 680
WIRE 672 -64 592 -64
WIRE 160 -48 96 -48
WIRE 160 -32 160 -48
WIRE 96 -16 96 -48
WIRE 592 -16 592 -64
WIRE 672 -16 672 -64
WIRE -16 128 -64 128
WIRE 160 128 64 128
WIRE 240 160 208 160
WIRE 368 160 320 160
WIRE 480 160 448 160
WIRE 656 160 544 160
WIRE 768 160 736 160
WIRE 208 192 208 160
WIRE 96 208 96 64
WIRE -368 224 -432 224
WIRE -192 224 -288 224
WIRE -64 224 -64 128
WIRE -64 224 -112 224
WIRE 64 224 -64 224
WIRE 592 224 592 64
WIRE 160 240 160 128
WIRE 160 240 128 240
WIRE 304 240 160 240
WIRE 480 240 480 160
WIRE 480 240 384 240
WIRE 544 240 544 160
WIRE 544 240 480 240
WIRE 560 240 544 240
WIRE -432 256 -432 224
WIRE 64 256 -32 256
WIRE 768 256 768 160
WIRE 768 256 624 256
WIRE 560 272 512 272
WIRE 96 320 96 272
WIRE 592 320 592 288
WIRE 240 336 208 336
WIRE 368 336 320 336
WIRE 480 336 480 240
WIRE 480 336 448 336
WIRE 512 336 512 272
WIRE 208 368 208 336
WIRE -32 400 -32 256
WIRE 96 432 96 400
WIRE 592 448 592 400
FLAG 160 -32 0
FLAG 96 432 0
FLAG -32 400 0
FLAG 208 368 0
FLAG 208 192 0
FLAG 672 -16 0
FLAG 592 448 0
FLAG -432 256 0
FLAG 512 336 0
SYMBOL OpAmps\\opamp2 96 176 R0
SYMATTR InstName U1
SYMATTR Value LM741/NS
SYMBOL OpAmps\\opamp2 592 192 R0
SYMATTR InstName U2
SYMATTR Value LM741/NS
SYMBOL res -96 208 R90
WINDOW 0 0 56 VBottom 2
WINDOW 3 32 56 VTop 2
SYMATTR InstName R1
SYMATTR Value 10k
SYMBOL res 80 112 R90
WINDOW 0 0 56 VBottom 2
WINDOW 3 32 56 VTop 2
SYMATTR InstName R2
SYMATTR Value 15k
SYMBOL voltage 96 80 R180
WINDOW 0 24 96 Left 2
WINDOW 3 24 16 Left 2
WINDOW 123 0 0 Left 0
WINDOW 39 0 0 Left 0
SYMATTR InstName V2
SYMATTR Value 12
SYMBOL voltage 96 416 R180
WINDOW 0 24 96 Left 2
WINDOW 3 24 16 Left 2
WINDOW 123 0 0 Left 0
WINDOW 39 0 0 Left 0
SYMATTR InstName V3
SYMATTR Value 12
SYMBOL voltage 336 160 R90
WINDOW 0 -32 56 VBottom 2
WINDOW 3 32 56 VTop 2
WINDOW 123 0 0 Left 0
WINDOW 39 0 0 Left 0
SYMATTR InstName V4
SYMATTR Value 5
SYMBOL voltage 336 336 R90
WINDOW 0 -32 56 VBottom 2
WINDOW 3 32 56 VTop 2
WINDOW 123 0 0 Left 0
WINDOW 39 0 0 Left 0
SYMATTR InstName V5
SYMATTR Value 4
SYMBOL res 464 144 R90
WINDOW 0 0 56 VBottom 2
WINDOW 3 32 56 VTop 2
SYMATTR InstName R3
SYMATTR Value 20k
SYMBOL res 464 320 R90
WINDOW 0 0 56 VBottom 2
WINDOW 3 32 56 VTop 2
SYMATTR InstName R4
SYMATTR Value 40k
SYMBOL res 752 144 R90
WINDOW 0 0 56 VBottom 2
WINDOW 3 32 56 VTop 2
SYMATTR InstName R5
SYMATTR Value 10k
SYMBOL voltage 592 80 R180
WINDOW 0 24 96 Left 2
WINDOW 3 24 16 Left 2
WINDOW 123 0 0 Left 0
WINDOW 39 0 0 Left 0
SYMATTR InstName V6
SYMATTR Value 12
SYMBOL voltage 592 416 R180
WINDOW 0 24 96 Left 2
WINDOW 3 24 16 Left 2
WINDOW 123 0 0 Left 0
WINDOW 39 0 0 Left 0
SYMATTR InstName V7
SYMATTR Value 12
SYMBOL res 400 224 R90
WINDOW 0 0 56 VBottom 2
WINDOW 3 32 56 VTop 2
SYMATTR InstName R6
SYMATTR Value 10k
SYMBOL voltage -272 224 R90
WINDOW 0 -32 56 VBottom 2
WINDOW 3 32 56 VTop 2
WINDOW 123 0 0 Left 0
WINDOW 39 0 0 Left 0
SYMATTR InstName V1
SYMATTR Value 5
TEXT -304 304 Left 2 !.include LM741.MOD
TEXT -440 32 Left 2 !.op
